Circuit: * C:\Users\b008ff\Documents\LTspiceXVII\Draft4.asc

.OP point found by inspection.

Date: Thu Oct 29 14:20:08 2020
Total elapsed time: 0.063 seconds.

tnom = 27
temp = 27
method = modified trap
totiter = 2262
traniter = 2262
tranpoints = 1045
accept = 1045
rejected = 0
matrix size = 3
fillins = 0
solver = Normal
Matrix Compiler1:       5 opcodes  0.0/[0.0]/0.0
Matrix Compiler2: 163 bytes object code size  0.0/0.1/[0.0]

