Circuit: * C:\Users\b008ff\Documents\LTspiceXVII\Draft3.asc

.OP point found by inspection.

Date: Thu Oct 22 15:29:59 2020
Total elapsed time: 0.064 seconds.

tnom = 27
temp = 27
method = trap
totiter = 180
traniter = 0
tranpoints = 0
accept = 0
rejected = 0
matrix size = 3
fillins = 0
solver = Normal
Matrix Compiler1: 50 bytes object code size  0.0/0.0/[0.0]
Matrix Compiler2: 175 bytes object code size  0.0/0.0/[0.0]

