Circuit: * C:\Users\b008ff\Documents\LTspiceXVII\Draft9.asc

.OP point found by inspection.

Date: Thu Oct 29 14:31:34 2020
Total elapsed time: 0.066 seconds.

tnom = 27
temp = 27
method = modified trap
totiter = 2428
traniter = 2428
tranpoints = 1045
accept = 1045
rejected = 0
matrix size = 4
fillins = 0
solver = Normal
Matrix Compiler1:       7 opcodes  0.1/[0.0]/0.0
Matrix Compiler2: 282 bytes object code size  0.1/0.0/[0.0]

