Circuit: * C:\Users\b008ff\Documents\LTspiceXVII\Draft15.asc


Date: Thu Nov 19 14:32:13 2020
Total elapsed time: 0.035 seconds.

tnom = 27
temp = 27
method = trap
totiter = 0
traniter = 0
tranpoints = 0
accept = 0
rejected = 0
matrix size = 3
fillins = 1
solver = Normal

