Circuit: * C:\Users\b008ff\Documents\LTspiceXVII\Draft16.asc


Date: Thu Nov 19 14:50:14 2020
Total elapsed time: 0.034 seconds.

tnom = 27
temp = 27
method = trap
totiter = 0
traniter = 0
tranpoints = 0
accept = 0
rejected = 0
matrix size = 4
fillins = 0
solver = Normal

