Circuit: * C:\Users\b008ff\Documents\LTspiceXVII\Draft12.asc

Direct Newton iteration for .op point succeeded.

Date: Thu Nov 12 14:31:03 2020
Total elapsed time: 0.434 seconds.

tnom = 27
temp = 27
method = modified trap
totiter = 2085
traniter = 2082
tranpoints = 1042
accept = 1042
rejected = 0
matrix size = 3
fillins = 0
solver = Normal
Matrix Compiler1:       3 opcodes  0.1/[0.1]/0.1
Matrix Compiler2: 175 bytes object code size  0.1/0.1/[0.1]

