Circuit: * C:\Users\b008ff\Documents\LTspiceXVII\Draft8.asc

.OP point found by inspection.

Date: Thu Oct 29 14:30:29 2020
Total elapsed time: 0.070 seconds.

tnom = 27
temp = 27
method = modified trap
totiter = 2258
traniter = 2258
tranpoints = 1045
accept = 1045
rejected = 0
matrix size = 4
fillins = 0
solver = Normal
Matrix Compiler1: 100 bytes object code size  0.0/0.0/[0.0]
Matrix Compiler2:      21 opcodes  0.1/[0.0]/0.0

