Circuit: * C:\Users\b008ff\Documents\LTspiceXVII\Draft2.asc

Direct Newton iteration for .op point succeeded.

Date: Thu Oct 15 16:30:19 2020
Total elapsed time: 0.156 seconds.

tnom = 27
temp = 27
method = modified trap
totiter = 2085
traniter = 2082
tranpoints = 1042
accept = 1042
rejected = 0
matrix size = 3
fillins = 0
solver = Normal
Matrix Compiler1:       5 opcodes  0.1/[0.1]/0.1
Matrix Compiler2:      15 opcodes  0.1/[0.1]/0.1

