Circuit: * C:\Users\b008ff\Documents\LTspiceXVII\Draft11.asc

WARNING: Node N001 is floating.

Direct Newton iteration for .op point succeeded.

Date: Thu Nov 12 14:15:34 2020
Total elapsed time: 0.099 seconds.

tnom = 27
temp = 27
method = modified trap
totiter = 2085
traniter = 2082
tranpoints = 1042
accept = 1042
rejected = 0
matrix size = 4
fillins = 0
solver = Normal
Matrix Compiler1:       6 opcodes  0.1/[0.1]/0.1
Matrix Compiler2: off  [0.1]/0.1/0.1

