Circuit: * C:\Users\b008ff\Documents\LTspiceXVII\Draft14.asc


Date: Thu Nov 19 15:34:08 2020
Total elapsed time: 0.043 seconds.

tnom = 27
temp = 27
method = trap
totiter = 0
traniter = 0
tranpoints = 0
accept = 0
rejected = 0
matrix size = 3
fillins = 0
solver = Normal

