Circuit: * C:\Users\b008ff\Documents\LTspiceXVII\Draft10.asc

Direct Newton iteration for .op point succeeded.

Date: Thu Nov 12 13:59:48 2020
Total elapsed time: 0.124 seconds.

tnom = 27
temp = 27
method = modified trap
totiter = 2085
traniter = 2082
tranpoints = 1042
accept = 1042
rejected = 0
matrix size = 3
fillins = 0
solver = Normal
Matrix Compiler1:       3 opcodes  0.1/[0.1]/0.1
Matrix Compiler2:      15 opcodes  0.1/[0.1]/0.1

