Circuit: * C:\Users\b008ff\Documents\LTspiceXVII\Draft5.asc

Direct Newton iteration for .op point succeeded.

Date: Thu Oct 22 15:23:15 2020
Total elapsed time: 0.061 seconds.

tnom = 27
temp = 27
method = modified trap
totiter = 2088
traniter = 2082
tranpoints = 1042
accept = 1042
rejected = 0
matrix size = 3
fillins = 0
solver = Normal
Matrix Compiler1: 50 bytes object code size  0.0/0.0/[0.0]
Matrix Compiler2: 175 bytes object code size  0.0/0.1/[0.0]

